/*--------------------------------*- C++ -*----------------------------------*\
| =========                 |                                                 |
| \\      /  F ield         | OpenFOAM: The Open Source CFD Toolbox           |
|  \\    /   O peration     | Version:  2212                                  |
|   \\  /    A nd           | Website:  www.openfoam.com                      |
|    \\/     M anipulation  |                                                 |
\*---------------------------------------------------------------------------*/
FoamFile
{
    version     2.0;
    format      ascii;
    arch        "LSB;label=32;scalar=64";
    class       featureEdgeMesh;
    location    "constant/triSurface";
    object      birdLeft.eMesh;
}
// * * * * * * * * * * * * * * * * * * * * * * * * * * * * * * * * * * * * * //


// points:

94
(
(-0.0372676 -0.00166667 0.0333333)
(-0.0372676 0.00166667 0.0333333)
(0.0372676 -0.00166667 0.0333333)
(0.0372676 0.00166667 0.0333333)
(-0.0406563 -0.00166667 0.041791)
(-0.0406563 0.00166667 0.041791)
(-0.043567 -0.00166667 0.0509326)
(-0.043567 0.00166667 0.0509326)
(-0.0460783 0.00166667 0.0611786)
(-0.0460783 -0.00166667 0.0611786)
(-0.0480216 0.00166667 0.0721496)
(-0.0480216 -0.00166667 0.0721496)
(-0.049329 0.00166667 0.0836712)
(-0.049329 -0.00166667 0.0836712)
(-0.0499503 0.00166667 0.0955389)
(-0.0499503 -0.00166667 0.0955389)
(-0.0498583 0.00166667 0.107526)
(-0.0498583 -0.00166667 0.107526)
(-0.049163 0.00166667 0.118219)
(-0.049163 -0.00166667 0.118219)
(-0.0479046 0.00166667 0.128647)
(-0.0479046 -0.00166667 0.128647)
(-0.0461143 0.00166667 0.13865)
(-0.0461143 -0.00166667 0.13865)
(-0.043839 0.00166667 0.148089)
(-0.043839 -0.00166667 0.148089)
(-0.041135 0.00166667 0.156848)
(-0.041135 -0.00166667 0.156848)
(-0.0380673 0.00166667 0.164835)
(-0.0380673 -0.00166667 0.164835)
(-0.034704 0.00166667 0.171989)
(-0.034704 -0.00166667 0.171989)
(-0.0311137 0.00166667 0.17828)
(-0.0311137 -0.00166667 0.17828)
(-0.0273612 0.00166667 0.183698)
(-0.0273612 -0.00166667 0.183698)
(-0.023505 0.00166667 0.188261)
(-0.023505 -0.00166667 0.188261)
(-0.0195944 0.00166667 0.192001)
(-0.0195944 -0.00166667 0.192001)
(-0.0156679 0.00166667 0.194963)
(-0.0156679 -0.00166667 0.194963)
(-0.0117524 0.00166667 0.197198)
(-0.0117524 -0.00166667 0.197198)
(-0.00786299 0.00166667 0.198755)
(-0.00786299 -0.00166667 0.198755)
(-0.00400416 0.00166667 0.199678)
(-0.00400416 -0.00166667 0.199678)
(-0.000171853 0.00166667 0.199999)
(-0.000171853 -0.00166667 0.199999)
(0.00406633 0.00166667 0.199668)
(0.00406633 -0.00166667 0.199668)
(0.00829583 0.00166667 0.198614)
(0.00829583 -0.00166667 0.198614)
(0.0125271 0.00166667 0.19681)
(0.0125271 -0.00166667 0.19681)
(0.0167607 -0.00166667 0.194214)
(0.0167607 0.00166667 0.194214)
(0.0209833 -0.00166667 0.190768)
(0.0209833 0.00166667 0.190768)
(0.0251654 -0.00166667 0.18641)
(0.0251654 0.00166667 0.18641)
(0.0292612 -0.00166667 0.181087)
(0.0292612 0.00166667 0.181087)
(0.0332094 -0.00166667 0.174756)
(0.0332094 0.00166667 0.174756)
(0.036936 0.00166667 0.167401)
(0.036936 -0.00166667 0.167401)
(0.0403573 -0.00166667 0.159035)
(0.0403573 0.00166667 0.159035)
(0.0433846 -0.00166667 0.14971)
(0.0433846 0.00166667 0.14971)
(0.0459306 -0.00166667 0.139516)
(0.0459306 0.00166667 0.139516)
(0.0479133 0.00166667 0.128588)
(0.0479133 -0.00166667 0.128588)
(0.049264 0.00166667 0.117096)
(0.049264 -0.00166667 0.117096)
(0.0499313 0.00166667 0.105244)
(0.0499313 -0.00166667 0.105244)
(0.0498863 0.00166667 0.0932582)
(0.0498863 -0.00166667 0.0932582)
(0.049233 0.00166667 0.0825519)
(0.049233 -0.00166667 0.0825519)
(0.0480146 0.00166667 0.0720996)
(0.0480146 -0.00166667 0.0720996)
(0.0462616 0.00166667 0.0620603)
(0.0462616 -0.00166667 0.0620603)
(0.0440196 0.00166667 0.0525759)
(0.0440196 -0.00166667 0.0525759)
(0.041345 0.00166667 0.0437646)
(0.041345 -0.00166667 0.0437646)
(0.0393926 0.00166667 0.038414)
(0.0393926 -0.00166667 0.038414)
)


// edges:

96
(
(1 0)
(0 4)
(5 1)
(4 6)
(7 5)
(8 7)
(6 9)
(10 8)
(9 11)
(12 10)
(11 13)
(14 12)
(13 15)
(16 14)
(15 17)
(18 16)
(17 19)
(20 18)
(19 21)
(22 20)
(21 23)
(24 22)
(23 25)
(26 24)
(25 27)
(28 26)
(27 29)
(30 28)
(29 31)
(32 30)
(31 33)
(34 32)
(33 35)
(36 34)
(35 37)
(38 36)
(37 39)
(40 38)
(39 41)
(42 40)
(41 43)
(44 42)
(43 45)
(46 44)
(45 47)
(48 46)
(47 49)
(50 48)
(49 51)
(52 50)
(51 53)
(54 52)
(53 55)
(55 56)
(57 54)
(56 58)
(59 57)
(58 60)
(61 59)
(60 62)
(63 61)
(62 64)
(65 63)
(66 65)
(64 67)
(67 68)
(69 66)
(68 70)
(71 69)
(70 72)
(73 71)
(74 73)
(72 75)
(76 74)
(75 77)
(78 76)
(77 79)
(80 78)
(79 81)
(82 80)
(81 83)
(84 82)
(83 85)
(86 84)
(85 87)
(88 86)
(87 89)
(90 88)
(89 91)
(92 90)
(91 93)
(2 3)
(3 92)
(93 2)
(2 0)
(1 3)
)

// * * * * * * * * * * * * * * * * * * * * * * * * * * * * * * * * * * * * * //


// ************************************************************************* //
