/*--------------------------------*- C++ -*----------------------------------*\
| =========                 |                                                 |
| \\      /  F ield         | OpenFOAM: The Open Source CFD Toolbox           |
|  \\    /   O peration     | Version:  2212                                  |
|   \\  /    A nd           | Website:  www.openfoam.com                      |
|    \\/     M anipulation  |                                                 |
\*---------------------------------------------------------------------------*/
FoamFile
{
    version     2.0;
    format      ascii;
    arch        "LSB;label=32;scalar=64";
    class       extendedFeatureEdgeMesh;
    location    "constant/extendedFeatureEdgeMesh";
    object      birdRight.extendedFeatureEdgeMesh;
}
// * * * * * * * * * * * * * * * * * * * * * * * * * * * * * * * * * * * * * //

// points

94
(
(0.0372676 -0.00166667 -0.0333333)
(0.0372676 0.00166667 -0.0333333)
(-0.0372676 -0.00166667 -0.0333333)
(-0.0372676 0.00166667 -0.0333333)
(0.0406563 -0.00166667 -0.041791)
(0.0406563 0.00166667 -0.041791)
(0.043567 -0.00166667 -0.0509326)
(0.043567 0.00166667 -0.0509326)
(0.0460783 0.00166667 -0.0611786)
(0.0460783 -0.00166667 -0.0611786)
(0.0480216 0.00166667 -0.0721496)
(0.0480216 -0.00166667 -0.0721496)
(0.049329 0.00166667 -0.0836712)
(0.049329 -0.00166667 -0.0836712)
(0.0499503 0.00166667 -0.0955389)
(0.0499503 -0.00166667 -0.0955389)
(0.0498583 0.00166667 -0.107526)
(0.0498583 -0.00166667 -0.107526)
(0.049163 0.00166667 -0.118219)
(0.049163 -0.00166667 -0.118219)
(0.0479046 0.00166667 -0.128647)
(0.0479046 -0.00166667 -0.128647)
(0.0461143 0.00166667 -0.13865)
(0.0461143 -0.00166667 -0.13865)
(0.043839 0.00166667 -0.148089)
(0.043839 -0.00166667 -0.148089)
(0.041135 0.00166667 -0.156848)
(0.041135 -0.00166667 -0.156848)
(0.0380673 0.00166667 -0.164835)
(0.0380673 -0.00166667 -0.164835)
(0.034704 0.00166667 -0.171989)
(0.034704 -0.00166667 -0.171989)
(0.0311137 0.00166667 -0.17828)
(0.0311137 -0.00166667 -0.17828)
(0.0273612 0.00166667 -0.183698)
(0.0273612 -0.00166667 -0.183698)
(0.023505 0.00166667 -0.188261)
(0.023505 -0.00166667 -0.188261)
(0.0195944 0.00166667 -0.192001)
(0.0195944 -0.00166667 -0.192001)
(0.0156679 0.00166667 -0.194963)
(0.0156679 -0.00166667 -0.194963)
(0.0117524 0.00166667 -0.197198)
(0.0117524 -0.00166667 -0.197198)
(0.00786299 0.00166667 -0.198755)
(0.00786299 -0.00166667 -0.198755)
(0.00400416 0.00166667 -0.199678)
(0.00400416 -0.00166667 -0.199678)
(0.000171853 0.00166667 -0.199999)
(0.000171853 -0.00166667 -0.199999)
(-0.00406633 0.00166667 -0.199668)
(-0.00406633 -0.00166667 -0.199668)
(-0.00829583 0.00166667 -0.198614)
(-0.00829583 -0.00166667 -0.198614)
(-0.0125271 0.00166667 -0.19681)
(-0.0125271 -0.00166667 -0.19681)
(-0.0167607 -0.00166667 -0.194214)
(-0.0167607 0.00166667 -0.194214)
(-0.0209833 -0.00166667 -0.190768)
(-0.0209833 0.00166667 -0.190768)
(-0.0251654 -0.00166667 -0.18641)
(-0.0251654 0.00166667 -0.18641)
(-0.0292612 -0.00166667 -0.181087)
(-0.0292612 0.00166667 -0.181087)
(-0.0332094 -0.00166667 -0.174756)
(-0.0332094 0.00166667 -0.174756)
(-0.036936 -0.00166667 -0.167401)
(-0.036936 0.00166667 -0.167401)
(-0.0403573 -0.00166667 -0.159035)
(-0.0403573 0.00166667 -0.159035)
(-0.0433846 0.00166667 -0.14971)
(-0.0433846 -0.00166667 -0.14971)
(-0.0459306 0.00166667 -0.139516)
(-0.0459306 -0.00166667 -0.139516)
(-0.0479133 0.00166667 -0.128588)
(-0.0479133 -0.00166667 -0.128588)
(-0.049264 0.00166667 -0.117096)
(-0.049264 -0.00166667 -0.117096)
(-0.0499313 0.00166667 -0.105244)
(-0.0499313 -0.00166667 -0.105244)
(-0.0498863 0.00166667 -0.0932582)
(-0.0498863 -0.00166667 -0.0932582)
(-0.049233 0.00166667 -0.0825519)
(-0.049233 -0.00166667 -0.0825519)
(-0.0480146 0.00166667 -0.0720996)
(-0.0480146 -0.00166667 -0.0720996)
(-0.0462616 0.00166667 -0.0620603)
(-0.0462616 -0.00166667 -0.0620603)
(-0.0440196 0.00166667 -0.0525759)
(-0.0440196 -0.00166667 -0.0525759)
(-0.041345 0.00166667 -0.0437646)
(-0.041345 -0.00166667 -0.0437646)
(-0.0393926 0.00166667 -0.038414)
(-0.0393926 -0.00166667 -0.038414)
)

// edges

96
(
(1 0)
(0 4)
(5 1)
(4 6)
(7 5)
(8 7)
(6 9)
(10 8)
(9 11)
(12 10)
(11 13)
(14 12)
(13 15)
(16 14)
(15 17)
(18 16)
(17 19)
(20 18)
(19 21)
(22 20)
(21 23)
(24 22)
(23 25)
(26 24)
(25 27)
(28 26)
(27 29)
(30 28)
(29 31)
(32 30)
(31 33)
(34 32)
(33 35)
(36 34)
(35 37)
(38 36)
(37 39)
(40 38)
(39 41)
(42 40)
(41 43)
(44 42)
(43 45)
(46 44)
(45 47)
(48 46)
(47 49)
(50 48)
(49 51)
(52 50)
(51 53)
(54 52)
(53 55)
(55 56)
(57 54)
(56 58)
(59 57)
(58 60)
(61 59)
(60 62)
(63 61)
(62 64)
(65 63)
(64 66)
(67 65)
(66 68)
(69 67)
(70 69)
(68 71)
(72 70)
(71 73)
(74 72)
(73 75)
(76 74)
(75 77)
(78 76)
(77 79)
(80 78)
(79 81)
(82 80)
(81 83)
(84 82)
(83 85)
(86 84)
(85 87)
(88 86)
(87 89)
(90 88)
(89 91)
(92 90)
(91 93)
(2 3)
(3 92)
(93 2)
(2 0)
(1 3)
)

// concaveStart mixedStart nonFeatureStart
4 4 4
// internalStart flatStart openStart multipleStart
96 96 96 96
// normals

184
(
(0.9282638435 -0 0.3719223532)
(-0 0 1)
(0 -1 0)
(0.9282638435 0 0.3719223532)
(0 1 0)
(0.9528652545 -0 0.3033938147)
(0 -1 0)
(0.9528652545 0 0.3033938147)
(0 1 0)
(0.9712518378 0 0.2380543373)
(0 1 0)
(0.9712518378 -0 0.2380543373)
(0 -1 0)
(0.9846721306 0 0.1744155821)
(0 1 0)
(0.9846721306 -0 0.1744155821)
(0 -1 0)
(0.9936233608 0 0.1127502414)
(0 1 0)
(0.9936233608 -0 0.1127502414)
(0 -1 0)
(0.998632435 0 0.0522805878)
(0 1 0)
(0.998632435 -0 0.0522805878)
(0 -1 0)
(0.9999705491 0 -0.00767469117)
(0 1 -0)
(0.9999705491 0 -0.00767469117)
(0 -1 0)
(0.9978926299 0 -0.06488681807)
(0 1 -0)
(0.9978926299 0 -0.06488681807)
(0 -1 0)
(0.9927973312 0 -0.1198059227)
(0 1 -0)
(0.9927973312 0 -0.1198059227)
(0 -1 0)
(0.9843585302 0 -0.1761768546)
(0 1 -0)
(0.9843585302 0 -0.1761768546)
(0 -1 0)
(0.9721545008 0 -0.2343408344)
(0 1 -0)
(0.9721545008 0 -0.2343408344)
(0 -1 0)
(0.9555049897 0 -0.2949749392)
(0 1 -0)
(0.9555049897 0 -0.2949749392)
(0 -1 0)
(0.9335108846 0 -0.3585490598)
(0 1 -0)
(0.9335108846 0 -0.3585490598)
(0 -1 0)
(0.904978895 0 -0.4254564604)
(0 1 -0)
(0.904978895 0 -0.4254564604)
(0 -1 0)
(0.8685140283 0 -0.4956645868)
(0 1 -0)
(0.8685140283 0 -0.4956645868)
(0 -1 0)
(0.822080198 0 -0.5693717134)
(0 1 -0)
(0.822080198 0 -0.5693717134)
(0 -1 0)
(0.7637823271 0 -0.6454739009)
(0 1 -0)
(0.7637823271 0 -0.6454739009)
(0 -1 0)
(0.6911672574 0 -0.7226948334)
(0 1 0)
(0.6911672574 0 -0.7226948334)
(0 -1 0)
(0.6022260307 0 -0.7983256278)
(0 1 0)
(0.6022260307 0 -0.7983256278)
(0 -1 0)
(0.4957328114 0 -0.8684750887)
(0 1 0)
(0.4957328114 0 -0.8684750887)
(0 -1 0)
(0.3716449939 0 -0.9283749235)
(0 1 0)
(0.3716449939 0 -0.9283749235)
(0 -1 0)
(0.2326295486 0 -0.9725654184)
(0 1 0)
(0.2326295486 0 -0.9725654184)
(0 -1 0)
(0.08346925839 0 -0.9965103526)
(0 1 0)
(0.08346925839 0 -0.9965103526)
(0 -1 0)
(-0.07786240517 0 -0.9969641146)
(-0.07786240517 0 -0.9969641146)
(-0.2418068163 0 -0.9703244115)
(0 1 0)
(-0.2418068163 0 -0.9703244115)
(0 -1 0)
(-0.3921918752 0 -0.9198834345)
(0 1 0)
(-0.3921918752 0 -0.9198834345)
(0 -1 0)
(-0.5227395877 0 -0.8524924184)
(0 -1 0)
(-0.5227395877 0 -0.8524924184)
(0 1 0)
(-0.6322641313 0 -0.7747529079)
(0 -1 0)
(-0.6322641313 0 -0.7747529079)
(0 1 0)
(-0.721517993 0 -0.6923956858)
(0 -1 0)
(-0.721517993 0 -0.6923956858)
(0 1 0)
(-0.7925387435 0 -0.6098215641)
(0 -1 0)
(-0.7925387435 0 -0.6098215641)
(0 1 0)
(-0.8485204438 0 -0.5291625993)
(0 -1 0)
(-0.8485204438 0 -0.5291625993)
(0 1 0)
(-0.8920325162 0 -0.451971227)
(0 -1 0)
(-0.8920325162 0 -0.451971227)
(0 1 0)
(-0.9255917138 0 -0.3785234198)
(0 -1 0)
(-0.9255917138 0 -0.3785234198)
(0 1 0)
(-0.9511337112 0 -0.3087793119)
(0 1 0)
(-0.9511337112 0 -0.3087793119)
(0 -1 0)
(-0.9701984587 0 -0.242311681)
(0 1 0)
(-0.9701984587 0 -0.242311681)
(0 -1 0)
(-0.9839365419 0 -0.1785185745)
(0 1 0)
(-0.9839365419 0 -0.1785185745)
(0 -1 0)
(-0.9931636352 0 -0.1167304318)
(0 1 0)
(-0.9931636352 0 -0.1167304318)
(0 -1 0)
(-0.9984187595 0 -0.05621370555)
(0 1 0)
(-0.9984187595 0 -0.05621370555)
(0 -1 0)
(-0.9999929522 0 0.003754416297)
(0 1 0)
(-0.9999929522 0 0.003754416297)
(0 -1 0)
(-0.9981434538 0 0.06090686029)
(0 1 0)
(-0.9981434538 0 0.06090686029)
(0 -1 0)
(-0.993274455 0 0.1157836645)
(0 1 0)
(-0.993274455 0 0.1157836645)
(0 -1 0)
(-0.9850950026 0 0.1720111501)
(0 1 0)
(-0.9850950026 0 0.1720111501)
(0 -1 0)
(-0.9731792669 0 0.2300480701)
(0 1 0)
(-0.9731792669 0 0.2300480701)
(0 -1 0)
(-0.9568883922 0 0.2904558571)
(0 1 0)
(-0.9568883922 0 0.2904558571)
(0 -1 0)
(-0.9394135073 0 0.3427860299)
(0 1 0)
(-0.9394135073 0 0.3427860299)
(0 -1 0)
(-0.9225576659 0 0.3858592399)
(0 0 1)
(0 1 0)
(-0.9225576659 0 0.3858592399)
(0 -1 0)
)

// normal volume types

184
(
0
0
0
0
0
0
0
0
0
0
0
0
0
0
0
0
0
0
0
0
0
0
0
0
0
0
0
0
0
0
0
0
0
0
0
0
0
0
0
0
0
0
0
0
0
0
0
0
0
0
0
0
0
0
0
0
0
0
0
0
0
0
0
0
0
0
0
0
0
0
0
0
0
0
0
0
0
0
0
0
0
0
0
0
0
0
0
0
0
0
0
0
0
0
0
0
0
0
0
0
0
0
0
0
0
0
0
0
0
0
0
0
0
0
0
0
0
0
0
0
0
0
0
0
0
0
0
0
0
0
0
0
0
0
0
0
0
0
0
0
0
0
0
0
0
0
0
0
0
0
0
0
0
0
0
0
0
0
0
0
0
0
0
0
0
0
0
0
0
0
0
0
0
0
0
0
0
0
0
0
0
0
0
0
)

// normalDirections

96
(
2(1 -1)
2(1 -1)
2(1 -1)
2(1 -1)
2(1 -1)
2(1 -1)
2(1 -1)
2(1 -1)
2(1 -1)
2(1 -1)
2(1 -1)
2(1 -1)
2(1 -1)
2(1 -1)
2(1 -1)
2(1 -1)
2(1 -1)
2(1 -1)
2(1 -1)
2(1 -1)
2(1 -1)
2(1 -1)
2(1 -1)
2(1 -1)
2(1 -1)
2(1 -1)
2(1 -1)
2(1 -1)
2(1 -1)
2(1 -1)
2(1 -1)
2(1 -1)
2(1 -1)
2(1 -1)
2(1 -1)
2(1 -1)
2(1 -1)
2(1 -1)
2(1 -1)
2(1 -1)
2(1 -1)
2(1 -1)
2(1 -1)
2(1 -1)
2(1 -1)
2(1 -1)
2(1 -1)
2(1 -1)
2(1 -1)
2(1 -1)
2(1 -1)
2(1 -1)
2(1 -1)
2(1 -1)
2(1 -1)
2(1 -1)
2(1 -1)
2(1 -1)
2(1 -1)
2(1 -1)
2(1 -1)
2(1 -1)
2(1 -1)
2(1 -1)
2(1 -1)
2(1 -1)
2(1 -1)
2(1 -1)
2(1 -1)
2(1 -1)
2(1 -1)
2(1 -1)
2(1 -1)
2(1 -1)
2(1 -1)
2(1 -1)
2(1 -1)
2(1 -1)
2(1 -1)
2(1 -1)
2(1 -1)
2(1 -1)
2(1 -1)
2(1 -1)
2(1 -1)
2(1 -1)
2(1 -1)
2(1 -1)
2(1 -1)
2(1 -1)
2(1 -1)
2(1 -1)
2(1 -1)
2(1 -1)
2(1 -1)
2(1 -1)
)

// edgeNormals

96
(
2(0 1)
2(0 2)
2(3 4)
2(5 6)
2(7 8)
2(9 10)
2(11 12)
2(13 14)
2(15 16)
2(17 18)
2(19 20)
2(21 22)
2(23 24)
2(25 26)
2(27 28)
2(29 30)
2(31 32)
2(33 34)
2(35 36)
2(37 38)
2(39 40)
2(41 42)
2(43 44)
2(45 46)
2(47 48)
2(49 50)
2(51 52)
2(53 54)
2(55 56)
2(57 58)
2(59 60)
2(61 62)
2(63 64)
2(65 66)
2(67 68)
2(69 70)
2(71 72)
2(73 74)
2(75 76)
2(77 78)
2(79 80)
2(81 82)
2(83 84)
2(85 86)
2(87 88)
2(89 90)
2(91 92)
2(93 90)
2(94 92)
2(95 96)
2(97 98)
2(99 100)
2(101 102)
2(103 104)
2(105 106)
2(107 108)
2(109 110)
2(111 112)
2(113 114)
2(115 116)
2(117 118)
2(119 120)
2(121 122)
2(123 124)
2(125 126)
2(127 128)
2(129 130)
2(131 132)
2(133 134)
2(135 136)
2(137 138)
2(139 140)
2(141 142)
2(143 144)
2(145 146)
2(147 148)
2(149 150)
2(151 152)
2(153 154)
2(155 156)
2(157 158)
2(159 160)
2(161 162)
2(163 164)
2(165 166)
2(167 168)
2(169 170)
2(171 172)
2(173 174)
2(175 176)
2(177 178)
2(179 180)
2(179 181)
2(182 183)
2(180 183)
2(1 181)
)

// featurePointNormals

4
(
3(0 1 2)
3(0 1 4)
3(179 180 183)
3(179 180 181)
)

// featurePointEdges

4
(
3(0 94 1)
3(2 95 0)
3(93 94 91)
3(91 95 92)
)

// regionEdges
0()


// ************************************************************************* //
