/*--------------------------------*- C++ -*----------------------------------*\
| =========                 |                                                 |
| \\      /  F ield         | OpenFOAM: The Open Source CFD Toolbox           |
|  \\    /   O peration     | Version:  v2212                                 |
|   \\  /    A nd           | Website:  www.openfoam.com                      |
|    \\/     M anipulation  |                                                 |
\*---------------------------------------------------------------------------*/
FoamFile
{
    version     2.0;
    format      ascii;
    class       dictionary;
    object      blockMeshDict;
}
// * * * * * * * * * * * * * * * * * * * * * * * * * * * * * * * * * * * * * //

scale   0.01;

// xmin -5;
// xmax 15;
// ymin -4;
// ymax 4;
// zmin 0;
// zmax 8;

// xmin -0.2;
// xmax  0.4;
// ymin -0.3;
// ymax  0.3;
// zmin -0.3;
// zmax  0.3;

xmin -58.3;
xmax 116.7;
ymin -87.5;
ymax  87.5;
zmin -87.5;
zmax  87.5;

vertices
(
    ($xmin $ymin $zmin)
    ($xmax $ymin $zmin)
    ($xmax $ymax $zmin)
    ($xmin $ymax $zmin)
    ($xmin $ymin $zmax)
    ($xmax $ymin $zmax)
    ($xmax $ymax $zmax)
    ($xmin $ymax $zmax)
);

blocks
(
    hex (0 1 2 3 4 5 6 7)
    (35 35 35)
    simpleGrading (1 1 1)
);

edges
(
);

boundary
(
    oversetPatch
    {
        type overset;
        faces ();
    }
    sides
    {
        type patch;
        faces
        (
            (3 7 6 2)
            (1 5 4 0)
            (0 3 2 1)
            (4 5 6 7)
        );
    }
    inlet
    {
        type patch;
        faces
        (
            (0 4 7 3)
        );
    }
    outlet
    {
        type patch;
        faces
        (
            (2 6 5 1)
        );
    }
);

mergePatchPairs
(
);


// ************************************************************************* //
