/*--------------------------------*- C++ -*----------------------------------*\
| =========                 |                                                 |
| \\      /  F ield         | OpenFOAM: The Open Source CFD Toolbox           |
|  \\    /   O peration     | Version:  plus                                  |
|   \\  /    A nd           | Web:      www.OpenFOAM.com                      |
|    \\/     M anipulation  |                                                 |
\*---------------------------------------------------------------------------*/
FoamFile
{
    version     2.0;
    format      ascii;
    class       volVectorField;
    object      U;
}
// * * * * * * * * * * * * * * * * * * * * * * * * * * * * * * * * * * * * * //

dimensions      [0 1 -1 0 0 0 0];

internalField   uniform (1 0 0); // uniform (12.7 0 0);

boundaryField
{
    #includeEtc "caseDicts/setConstraintTypes"

    "oversetPatch"
    {
        type            overset;
        value           $internalField;
    }

    "(leftWing|rightWing|body)"
    {
        type            movingWallVelocity;
        value           uniform (0 0 0);
    }

    inlet
    {
        type            fixedValue;
        value           $internalField;
    }

    outlet
    {
        type            inletOutlet;
        inletValue      uniform (0 0 0);
        value           $internalField;
    }

    sides
    {
        type            zeroGradient;
    }
}

// ************************************************************************* //
