/*--------------------------------*- C++ -*----------------------------------*\
| =========                 |                                                 |
| \\      /  F ield         | OpenFOAM: The Open Source CFD Toolbox           |
|  \\    /   O peration     | Version:  2212                                  |
|   \\  /    A nd           | Website:  www.openfoam.com                      |
|    \\/     M anipulation  |                                                 |
\*---------------------------------------------------------------------------*/
FoamFile
{
    version     2.0;
    format      ascii;
    arch        "LSB;label=32;scalar=64";
    class       extendedFeatureEdgeMesh;
    location    "constant/extendedFeatureEdgeMesh";
    object      birdBody.extendedFeatureEdgeMesh;
}
// * * * * * * * * * * * * * * * * * * * * * * * * * * * * * * * * * * * * * //

// points

15
(
(-0.0299027 -0.000526503 -0.000832597)
(-0.0299808 -0.000208924 -0.000385408)
(-0.0299567 -0.000483138 0.000445707)
(-0.0299027 -0.000737358 0.000653242)
(-0.0299892 -0.000237161 0.000227796)
(-0.0299567 -0.000656793 -2.6468e-05)
(-0.0299892 -0.000328774 -6.622e-06)
(-0.0299993 -4.5337e-05 -6.8596e-05)
(-0.0299985 -0.000122828 1.1162e-05)
(0.0298668 0.00115214 0)
(0.0299667 0.000569557 9.2562e-05)
(0.0299667 0.000560262 -0.000138092)
(0.0299917 0.000277239 -8.0303e-05)
(0.03 0 0)
(-0.0299993 -6.8596e-05 4.5337e-05)
)

// edges

13
(
(0 1)
(2 3)
(4 2)
(5 6)
(7 1)
(6 8)
(9 10)
(11 12)
(12 13)
(0 7)
(14 3)
(8 5)
(13 9)
)

// concaveStart mixedStart nonFeatureStart
0 0 0
// internalStart flatStart openStart multipleStart
9 13 13 13
// normals

19
(
(-0.989834526 -0.06609432342 -0.125933123)
(-0.8383139776 -0.502832743 0.2106867522)
(-0.9865391607 -0.1132782937 0.1179343573)
(-0.6747231951 -0.5474433286 -0.4950297081)
(-0.9831136827 0.03002409238 0.1805160403)
(-0.8624449228 -0.394680203 -0.3168852986)
(-0.9949619677 -0.09937946964 0.0132062028)
(-0.4302538011 -0.09692978995 0.8974888759)
(-0.9983568204 -0.04553767021 -0.03478476295)
(-0.9989767637 -0.04521148691 0.001160648988)
(0.9378183849 0.1084220745 -0.3297595044)
(0.9621003443 0.1952284964 0.1903910757)
(0.9962212041 0.08238245202 -0.02750352807)
(0.8114515357 0.184878521 0.554406293)
(0.9995861296 0.02728691935 -0.009110078615)
(-0.9669349258 0.142109169 -0.2117589038)
(-0.9754021813 -0.207786213 -0.07358990745)
(-0.9911061696 -0.06959261825 -0.11342587)
(0.9688628754 0.1120111575 0.2208126566)
)

// normal volume types

19
(
0
0
0
0
0
0
0
0
0
0
0
0
0
0
0
0
0
0
0
)

// normalDirections

13
(
2(1 -1)
2(1 -1)
2(1 -1)
2(1 -1)
2(1 -1)
2(1 -1)
2(1 -1)
2(1 -1)
2(1 -1)
2(1 -1)
2(1 -1)
2(1 -1)
2(1 -1)
)

// edgeNormals

13
(
2(0 1)
2(2 3)
2(4 5)
2(6 7)
2(1 8)
2(9 7)
2(10 11)
2(12 13)
2(14 13)
2(1 15)
2(3 16)
2(17 7)
2(10 18)
)

// featurePointNormals
0()
// featurePointEdges
0()
// regionEdges
0()


// ************************************************************************* //
